8500-Node/IEEE8500_Power_seq_kVA.txt

SYMMETRICAL COMPONENT POWERS BY CIRCUIT ELEMENT (first 3 phases)                                     Excess Power

Element                     Term    P1(kW)   Q1(kvar)       P2         Q2      P0      Q0       P_Norm      Q_Norm     P_Emerg    Q_Emerg

"Vsource.SOURCE"             1   -11975.8    -1348.0        0.0        0.0     0.0    -0.0
"Vsource.SOURCE"             2        0.0        0.0        0.0        0.0     0.0     0.0
"Line.HVMV_SUB_CONNECTOR"    1    11909.2      453.7        1.9       -1.8     0.0     0.6     3154.7      119.9        0.0        0.0
"Line.HVMV_SUB_CONNECTOR"    2   -11909.2     -453.7       -1.9        1.8    -0.0    -0.6
"Line.LN5502549-1"           1        0.0        0.0        0.0        0.0     0.0     0.0        0.0        0.0        0.0        0.0
"Line.LN5502549-1"           2        0.0        0.0        0.0        0.0     0.0     0.0
"Line.LN6259988-1"           1        0.0        0.0        0.0        0.0     0.0     0.0        0.0        0.0        0.0        0.0
"Line.LN6259988-1"           2        0.0        0.0        0.0        0.0     0.0     0.0
"Line.LN6077796-1"           1        0.0        0.0        0.0        0.0     0.0     0.0        0.0        0.0        0.0        0.0
"Line.LN6077796-1"           2        0.0        0.0        0.0        0.0     0.0     0.0
"Line.LN5835135-2"           1        0.0        0.0        0.0        0.0     0.0     0.0        0.0        0.0        0.0        0.0
"Line.LN5835135-2"           2        0.0        0.0        0.0        0.0     0.0     0.0
"Line.LN5896826-1"           1        0.0        0.0        0.0        0.0     0.0     0.0        0.0        0.0        0.0        0.0
"Line.LN5896826-1"           2        0.0        0.0        0.0        0.0     0.0     0.0
"Line.LN5714038-1"           1        0.0        0.0        0.0        0.0     0.0     0.0        0.0        0.0        0.0        0.0
"Line.LN5714038-1"           2        0.0        0.0        0.0        0.0     0.0     0.0
"Line.LN5653457-1"           1      549.2      156.5       -1.4       -4.8     4.9    -4.9        0.0        0.0        0.0        0.0
"Line.LN5653457-1"           2     -548.9     -156.4        1.4        4.8    -4.8     4.9
"Line.LN5835173-1"           1      986.5      270.2       -4.4       -3.5     7.1    -1.0        0.0        0.0        0.0        0.0
"Line.LN5835173-1"           2     -986.4     -270.1        4.4        3.5    -7.1     1.0
"Line.LN6321415-1"           1        0.0        0.0        0.0        0.0     0.0     0.0        0.0        0.0        0.0        0.0
"Line.LN6321415-1"           2        0.0        0.0        0.0        0.0     0.0     0.0
"Line.LN5565092-1"           1        0.0        0.0        0.0        0.0     0.0     0.0        0.0        0.0        0.0        0.0
"Line.LN5565092-1"           2        0.0        0.0        0.0        0.0     0.0     0.0
"Line.LN6073648-1"           1        0.0        0.0        0.0        0.0     0.0     0.0        0.0        0.0        0.0        0.0
"Line.LN6073648-1"           2        0.0        0.0        0.0        0.0     0.0     0.0
"Line.LN5774457-1"           1      544.3      145.2        1.8       -0.2    -1.0    -0.7        0.0        0.0        0.0        0.0
"Line.LN5774457-1"           2     -544.2     -145.1       -1.8        0.2     1.0     0.7
"Line.LN5534966-3"           1        0.0        0.0        0.0        0.0     0.0     0.0        0.0        0.0        0.0        0.0
"Line.LN5534966-3"           2        0.0        0.0        0.0        0.0     0.0     0.0
"Line.LN5859996-1"           1        0.0        0.0        0.0        0.0     0.0     0.0        0.0        0.0        0.0        0.0
"Line.LN5859996-1"           2        0.0        0.0        0.0        0.0     0.0     0.0
"Line.LN6138610-2"           1     2244.7      602.7        6.1        3.2    -3.6     1.0        0.0        0.0        0.0        0.0
"Line.LN6138610-2"           2    -2243.4     -602.3       -6.1       -3.2     3.6    -1.0
"Line.LN6258435-3"           1        0.0        0.0        0.0        0.0     0.0     0.0        0.0        0.0        0.0        0.0
"Line.LN6258435-3"           2        0.0        0.0        0.0        0.0     0.0     0.0
"Line.LN5804790-1"           1        0.0        0.0        0.0        0.0     0.0     0.0        0.0        0.0        0.0        0.0
"Line.LN5804790-1"           2        0.0        0.0        0.0        0.0     0.0     0.0
"Line.LN6900591-14"          1        0.0        0.0        0.0        0.0     0.0     0.0        0.0        0.0        0.0        0.0
"Line.LN6900591-14"          2        0.0        0.0        0.0        0.0     0.0     0.0
"Line.LN6409873-1"           1        0.0        0.0        0.0        0.0     0.0     0.0        0.0        0.0        0.0        0.0
"Line.LN6409873-1"           2        0.0        0.0        0.0        0.0     0.0     0.0
"Line.LN6014135-1"           1        0.0        0.0        0.0        0.0     0.0     0.0        0.0        0.0        0.0        0.0
"Line.LN6014135-1"           2        0.0        0.0        0.0        0.0     0.0     0.0
"Line.LN6077784-1"           1     1203.7      332.9        1.5       -4.8     3.0    -5.6        0.0        0.0        0.0        0.0
"Line.LN6077784-1"           2    -1203.4     -332.7       -1.5        4.8    -3.0     5.7
"Line.LN5744338-1"           1        0.0        0.0        0.0        0.0     0.0     0.0        0.0        0.0        0.0        0.0
"Line.LN5744338-1"           2        0.0        0.0        0.0        0.0     0.0     0.0
"Line.LN6991381-4"           1        0.0        0.0        0.0        0.0     0.0     0.0        0.0        0.0        0.0        0.0
"Line.LN6991381-4"           2        0.0        0.0        0.0        0.0     0.0     0.0
"Line.LN5774480-1"           1        0.0        0.0        0.0        0.0     0.0     0.0        0.0        0.0        0.0        0.0
"Line.LN5774480-1"           2        0.0        0.0        0.0        0.0     0.0     0.0
"Line.LN5986938-3"           1        0.0        0.0        0.0        0.0     0.0     0.0        0.0        0.0        0.0        0.0
"Line.LN5986938-3"           2        0.0        0.0        0.0        0.0     0.0     0.0
"Line.LN5894230-1"           1        0.0        0.0        0.0        0.0     0.0     0.0        0.0        0.0        0.0        0.0
"Line.LN5894230-1"           2        0.0        0.0        0.0        0.0     0.0     0.0
"Line.LN5683858-3"           1       68.3       18.5       -0.1       -0.2     0.4    -0.1        0.0        0.0        0.0        0.0
"Line.LN5683858-3"           2      -68.2      -18.6        0.1        0.2    -0.4     0.1
"Line.LN5920279-5"           1     6327.9      802.9       -7.2      -17.5   -13.8   -23.0        0.0        0.0        0.0        0.0
"Line.LN5920279-5"           2    -6327.0     -800.8        7.2       17.6    13.9    23.1
"Line.LN6439600-1"           1        0.0        0.0        0.0        0.0     0.0     0.0        0.0        0.0        0.0        0.0
"Line.LN6439600-1"           2        0.0        0.0        0.0        0.0     0.0     0.0
"Line.LN5589097-1"           1        0.0        0.0        0.0        0.0     0.0     0.0        0.0        0.0        0.0        0.0
"Line.LN5589097-1"           2        0.0        0.0        0.0        0.0     0.0     0.0
"Line.LN5651975-1"           1      782.1      203.1        7.7        4.3    -8.9    -0.0        0.0        0.0        0.0        0.0
"Line.LN5651975-1"           2     -781.9     -203.1       -7.6       -4.3     8.9     0.1
"Line.LN5865236-1"           1        0.0        0.0        0.0        0.0     0.0     0.0        0.0        0.0        0.0        0.0
"Line.LN5865236-1"           2        0.0        0.0        0.0        0.0     0.0     0.0
"Line.LN5593232-1"           1        0.0        0.0        0.0        0.0     0.0     0.0        0.0        0.0        0.0        0.0
"Line.LN5593232-1"           2        0.0        0.0        0.0        0.0     0.0     0.0
"Line.LN5740283-1"           1        0.0        0.0        0.0        0.0     0.0     0.0        0.0        0.0        0.0        0.0
"Line.LN5740283-1"           2        0.0        0.0        0.0        0.0     0.0     0.0
"Line.LN6106559-1"           1        0.0        0.0        0.0        0.0     0.0     0.0        0.0        0.0        0.0        0.0
"Line.LN6106559-1"           2        0.0        0.0        0.0        0.0     0.0     0.0
"Line.LN5714056-3"           1      625.6      163.1        5.8        3.1    -8.7    -1.4        0.0        0.0        0.0        0.0
"Line.LN5714056-3"           2     -625.0     -163.0       -5.7       -3.0     8.8     1.4
"Line.LN5985355-3"           1        0.0        0.0        0.0        0.0     0.0     0.0        0.0        0.0        0.0        0.0
"Line.LN5985355-3"           2        0.0        0.0        0.0        0.0     0.0     0.0
"Line.LN5531956-1"           1        0.0        0.0        0.0        0.0     0.0     0.0        0.0        0.0        0.0        0.0
"Line.LN5531956-1"           2        0.0        0.0        0.0        0.0     0.0     0.0
"Line.LN5650048-1"           1        0.0        0.0        0.0        0.0     0.0     0.0        0.0        0.0        0.0        0.0
"Line.LN5650048-1"           2        0.0        0.0        0.0        0.0     0.0     0.0
"Line.LN6290203-1"           1      814.7      223.5       -4.1       -3.5     6.3    -1.5        0.0        0.0        0.0        0.0
"Line.LN6290203-1"           2     -814.5     -223.3        4.2        3.5    -6.2     1.6
"Line.LN6134414-1"           1        0.0        0.0        0.0        0.0     0.0     0.0        0.0        0.0        0.0        0.0
"Line.LN6134414-1"           2        0.0        0.0        0.0        0.0     0.0     0.0
"Line.LN6259998-2"           1        0.0        0.0        0.0        0.0     0.0     0.0        0.0        0.0        0.0        0.0
"Line.LN6259998-2"           2        0.0        0.0        0.0        0.0     0.0     0.0
"Line.LN6078767-1"           1     2817.8     -163.4        0.5        3.2     4.5     0.3        0.0        0.0        0.0        0.0
"Line.LN6078767-1"           2    -2817.6      163.9       -0.5       -3.2    -4.5    -0.3
"Line.LN6017300-1"           1        0.0        0.0        0.0        0.0     0.0     0.0        0.0        0.0        0.0        0.0
"Line.LN6017300-1"           2        0.0        0.0        0.0        0.0     0.0     0.0
"Line.LN8979257-2"           1       29.2        7.6       -0.0        0.0     0.0    -0.0        0.0        0.0        0.0        0.0
"Line.LN8979257-2"           2      -29.2       -7.7        0.0       -0.0    -0.0     0.0
"Line.LN81048109-1"          1        0.0        0.0        0.0        0.0     0.0     0.0        0.0        0.0        0.0        0.0
"Line.LN81048109-1"          2        0.0        0.0        0.0        0.0     0.0     0.0
"Line.293471"                1       29.2        7.8       -0.0        0.0     0.0    -0.0        0.0        0.0        0.0        0.0
"Line.293471"                2      -29.2       -7.8        0.0       -0.0    -0.0     0.0
"Line.LN5534965-2"           1        0.0        0.0        0.0        0.0     0.0     0.0        0.0        0.0        0.0        0.0
"Line.LN5534965-2"           2        0.0        0.0        0.0        0.0     0.0     0.0
"Line.LN5655683-1"           1        0.0        0.0        0.0        0.0     0.0     0.0        0.0        0.0        0.0        0.0
"Line.LN5655683-1"           2        0.0        0.0        0.0        0.0     0.0     0.0
"Line.LN5686247-1"           1        0.0        0.0        0.0        0.0     0.0     0.0        0.0        0.0        0.0        0.0
"Line.LN5686247-1"           2        0.0        0.0        0.0        0.0     0.0     0.0
"Line.LN6048642-1"           1        0.0        0.0        0.0        0.0     0.0     0.0        0.0        0.0        0.0        0.0
"Line.LN6048642-1"           2        0.0        0.0        0.0        0.0     0.0     0.0
"Line.LN5928544-3"           1        0.0        0.0        0.0        0.0     0.0     0.0        0.0        0.0        0.0        0.0
"Line.LN5928544-3"           2        0.0        0.0        0.0        0.0     0.0     0.0
"Line.LN6108172-1"           1        0.0        0.0        0.0        0.0     0.0     0.0        0.0        0.0        0.0        0.0
"Line.LN6108172-1"           2        0.0        0.0        0.0        0.0     0.0     0.0
"Line.LN5532754-1"           1      706.3      185.0        6.9        3.2    -8.5    -1.3        0.0        0.0        0.0        0.0
"Line.LN5532754-1"           2     -706.2     -184.9       -6.9       -3.1     8.5     1.3
"Line.LN5591834-1"           1        0.0        0.0        0.0        0.0     0.0     0.0        0.0        0.0        0.0        0.0
"Line.LN5591834-1"           2        0.0        0.0        0.0        0.0     0.0     0.0
"Line.LN6347196-2"           1      451.7      114.5        1.7        2.6    -3.5     1.7        0.0        0.0        0.0        0.0
"Line.LN6347196-2"           2     -451.7     -114.5       -1.7       -2.6     3.5    -1.7
"Line.LN5532741-1"           1        0.0        0.0        0.0        0.0     0.0     0.0        0.0        0.0        0.0        0.0
"Line.LN5532741-1"           2        0.0        0.0        0.0        0.0     0.0     0.0
"Line.LN5804803-1"           1        0.0        0.0        0.0        0.0     0.0     0.0        0.0        0.0        0.0        0.0
"Line.LN5804803-1"           2        0.0        0.0        0.0        0.0     0.0     0.0
"Line.LN6169248-1"           1     1646.7      460.2       12.3       -4.4    -8.4    -9.8        0.0        0.0        0.0        0.0
"Line.LN6169248-1"           2    -1645.9     -459.5      -12.2        4.5     8.4     9.9
"Line.LN5532786-2"           1        0.0        0.0        0.0        0.0     0.0     0.0        0.0        0.0        0.0        0.0
"Line.LN5532786-2"           2        0.0        0.0        0.0        0.0     0.0     0.0
"Line.LN5744339-1"           1        0.0        0.0        0.0        0.0     0.0     0.0        0.0        0.0        0.0        0.0
"Line.LN5744339-1"           2        0.0        0.0        0.0        0.0     0.0     0.0
"Line.LN5531255-3"           1        0.0        0.0        0.0        0.0     0.0     0.0        0.0        0.0        0.0        0.0
"Line.LN5531255-3"           2        0.0        0.0        0.0        0.0     0.0     0.0
"Line.LN5926308-2"           1      765.9      207.2       -0.5       -1.9    -1.8    -1.6        0.0        0.0        0.0        0.0
"Line.LN5926308-2"           2     -765.7     -207.1        0.5        1.9     1.8     1.6
"Line.LN5683856-3"           1        0.0        0.0        0.0        0.0     0.0     0.0        0.0        0.0        0.0        0.0
"Line.LN5683856-3"           2        0.0        0.0        0.0        0.0     0.0     0.0
"Line.LN6171502-1"           1        0.0        0.0        0.0        0.0     0.0     0.0        0.0        0.0        0.0        0.0
"Line.LN6171502-1"           2        0.0        0.0        0.0        0.0     0.0     0.0
"Line.LN5593228-1"           1        0.0        0.0        0.0        0.0     0.0     0.0        0.0        0.0        0.0        0.0
"Line.LN5593228-1"           2        0.0        0.0        0.0        0.0     0.0     0.0
"Line.LN6380800-1"           1        0.0        0.0        0.0        0.0     0.0     0.0        0.0        0.0        0.0        0.0
"Line.LN6380800-1"           2        0.0        0.0        0.0        0.0     0.0     0.0
"Line.LN6199525-2"           1        0.0        0.0        0.0        0.0     0.0     0.0        0.0        0.0        0.0        0.0
"Line.LN6199525-2"           2        0.0        0.0        0.0        0.0     0.0     0.0
"Line.LN5772710-2"           1        0.0        0.0        0.0        0.0     0.0     0.0        0.0        0.0        0.0        0.0
"Line.LN5772710-2"           2        0.0        0.0        0.0        0.0     0.0     0.0
"Line.LN8961760-1"           1        0.0        0.0        0.0        0.0     0.0     0.0        0.0        0.0        0.0        0.0
"Line.LN8961760-1"           2        0.0        0.0        0.0        0.0     0.0     0.0
"Line.LN6047556-1"           1        0.0        0.0        0.0        0.0     0.0     0.0        0.0        0.0        0.0        0.0
"Line.LN6047556-1"           2        0.0        0.0        0.0        0.0     0.0     0.0
"Line.LN6138603-1"           1        0.0        0.0        0.0        0.0     0.0     0.0        0.0        0.0        0.0        0.0
"Line.LN6138603-1"           2        0.0        0.0        0.0        0.0     0.0     0.0
"Line.LN6108139-1"           1        0.0        0.0        0.0        0.0     0.0     0.0        0.0        0.0        0.0        0.0
"Line.LN6108139-1"           2        0.0        0.0        0.0        0.0     0.0     0.0
"Line.LN6388581-2"           1        0.0        0.0        0.0        0.0     0.0     0.0        0.0        0.0        0.0        0.0
"Line.LN6388581-2"           2        0.0        0.0        0.0        0.0     0.0     0.0
"Line.LN5774460-1"           1        0.0        0.0        0.0        0.0     0.0     0.0        0.0        0.0        0.0        0.0
"Line.LN5774460-1"           2        0.0        0.0        0.0        0.0     0.0     0.0
"Line.LN5624387-1"           1        0.0        0.0        0.0        0.0     0.0     0.0        0.0        0.0        0.0        0.0
"Line.LN5624387-1"           2        0.0        0.0        0.0        0.0     0.0     0.0
"Line.LN6137087-1"           1        0.0        0.0        0.0        0.0     0.0     0.0        0.0        0.0        0.0        0.0
"Line.LN6137087-1"           2        0.0        0.0        0.0        0.0     0.0     0.0
"Line.LN6077809-1"           1        0.0        0.0        0.0        0.0     0.0     0.0        0.0        0.0        0.0        0.0
"Line.LN6077809-1"           2        0.0        0.0        0.0        0.0     0.0     0.0
"Line.LN6440079-1"           1        0.0        0.0        0.0        0.0     0.0     0.0        0.0        0.0        0.0        0.0
"Line.LN6440079-1"           2        0.0        0.0        0.0        0.0     0.0     0.0
"Line.LN5804794-1"           1        0.0        0.0        0.0        0.0     0.0     0.0        0.0        0.0        0.0        0.0
"Line.LN5804794-1"           2        0.0        0.0        0.0        0.0     0.0     0.0
"Line.LN5654484-1"           1        0.0        0.0        0.0        0.0     0.0     0.0        0.0        0.0        0.0        0.0
"Line.LN5654484-1"           2        0.0        0.0        0.0        0.0     0.0     0.0
"Line.LN5774465-1"           1        0.0        0.0        0.0        0.0     0.0     0.0        0.0        0.0        0.0        0.0
"Line.LN5774465-1"           2        0.0        0.0        0.0        0.0     0.0     0.0
"Line.LN5473349-1"           1     6006.5      644.0       11.8      -14.3     2.1   -12.0        0.0        0.0        0.0        0.0
"Line.LN5473349-1"           2    -6005.6     -642.0      -11.7       14.3    -2.1    12.1
"Line.LN6169253-1"           1        0.0        0.0        0.0        0.0     0.0     0.0        0.0        0.0        0.0        0.0
"Line.LN6169253-1"           2        0.0        0.0        0.0        0.0     0.0     0.0
"Line.LN6350536-1"           1        0.0        0.0        0.0        0.0     0.0     0.0        0.0        0.0        0.0        0.0
"Line.LN6350536-1"           2        0.0        0.0        0.0        0.0     0.0     0.0
"Line.LN6048523-1"           1        0.0        0.0        0.0        0.0     0.0     0.0        0.0        0.0        0.0        0.0
"Line.LN6048523-1"           2        0.0        0.0        0.0        0.0     0.0     0.0
"Line.LN5594152-1"           1        0.0        0.0        0.0        0.0     0.0     0.0        0.0        0.0        0.0        0.0
"Line.LN5594152-1"           2        0.0        0.0        0.0        0.0     0.0     0.0
"Line.LN5865248-1"           1      831.4      224.6       -0.1       -2.1    -2.2    -1.3        0.0        0.0        0.0        0.0
"Line.LN5865248-1"           2     -831.1     -224.6        0.1        2.1     2.2     1.3
"Line.LN6046143-1"           1        0.0        0.0        0.0        0.0     0.0     0.0        0.0        0.0        0.0        0.0
"Line.LN6046143-1"           2        0.0        0.0        0.0        0.0     0.0     0.0
"Line.LN5803287-1"           1        0.0        0.0        0.0        0.0     0.0     0.0        0.0        0.0        0.0        0.0
"Line.LN5803287-1"           2        0.0        0.0        0.0        0.0     0.0     0.0
"Line.LN5589094-1"           1        0.0        0.0        0.0        0.0     0.0     0.0        0.0        0.0        0.0        0.0
"Line.LN5589094-1"           2        0.0        0.0        0.0        0.0     0.0     0.0
"Line.LN5954983-1"           1        0.0        0.0        0.0        0.0     0.0     0.0        0.0        0.0        0.0        0.0
"Line.LN5954983-1"           2        0.0        0.0        0.0        0.0     0.0     0.0
"Line.LN5924696-2"           1        0.0        0.0        0.0        0.0     0.0     0.0        0.0        0.0        0.0        0.0
"Line.LN5924696-2"           2        0.0        0.0        0.0        0.0     0.0     0.0
"Line.LN6506311-4"           1        6.0        1.4        0.1        0.1     0.1     0.1        0.0        0.0        0.0        0.0
"Line.LN6506311-4"           2       -6.0       -1.4       -0.1       -0.1    -0.1    -0.1
"Line.LN5653493-1"           1        0.0        0.0        0.0        0.0     0.0     0.0        0.0        0.0        0.0        0.0
"Line.LN5653493-1"           2        0.0        0.0        0.0        0.0     0.0     0.0
"Line.LN5684836-1"           1     6134.3      700.9       -8.7      -16.3   -10.1   -25.7        0.0        0.0        0.0        0.0
"Line.LN5684836-1"           2    -6131.7     -694.6        8.8       16.4    10.2    26.0
"Line.LN5715016-3"           1        0.0        0.0        0.0        0.0     0.0     0.0        0.0        0.0        0.0        0.0
"Line.LN5715016-3"           2        0.0        0.0        0.0        0.0     0.0     0.0
"Line.LN6138614-1"           1      882.5     -697.6        0.2       -2.0    -1.9    -1.0        0.0        0.0        0.0        0.0
"Line.LN6138614-1"           2     -881.7      697.9       -0.1        2.0     1.9     1.1
"Line.LN6077781-2"           1     5003.4     1391.9       14.8       -6.1    -1.6   -10.0        0.0        0.0        0.0        0.0
"Line.LN6077781-2"           2    -4993.9    -1383.1      -14.7        6.2     1.7    10.1
"Line.LN5675121-1"           1        0.0        0.0        0.0        0.0     0.0     0.0        0.0        0.0        0.0        0.0
"Line.LN5675121-1"           2        0.0        0.0        0.0        0.0     0.0     0.0
"Line.LN5773046-1"           1        0.0        0.0        0.0        0.0     0.0     0.0        0.0        0.0        0.0        0.0
"Line.LN5773046-1"           2        0.0        0.0        0.0        0.0     0.0     0.0
"Line.LN6380809-2"           1      724.7      219.5       -2.5      -12.5     7.6   -10.9        0.0        0.0        0.0        0.0
"Line.LN6380809-2"           2     -724.7     -219.5        2.5       12.5    -7.5    10.9
"Line.LN6018326-1"           1        0.0        0.0        0.0        0.0     0.0     0.0        0.0        0.0        0.0        0.0
"Line.LN6018326-1"           2        0.0        0.0        0.0        0.0     0.0     0.0
"Line.LN5472356-1"           1        0.0        0.0        0.0        0.0     0.0     0.0        0.0        0.0        0.0        0.0
"Line.LN5472356-1"           2        0.0        0.0        0.0        0.0     0.0     0.0
"Line.LN6139641-1"           1     7442.1     1316.3       -4.8      -12.4    -8.5   -13.0        0.0        0.0        0.0        0.0
"Line.LN6139641-1"           2    -7440.0    -1311.3        4.9       12.5     8.6    13.3
"Line.LN6018341-1"           1     2648.6     -221.0        1.0        3.1     4.4    -0.0        0.0        0.0        0.0        0.0
"Line.LN6018341-1"           2    -2647.9      222.4       -0.9       -3.1    -4.3     0.1
"Line.LN6017302-1"           1      295.3       84.1       -3.3       -1.3    -1.1    -5.1        0.0        0.0        0.0        0.0
"Line.LN6017302-1"           2     -295.3      -84.1        3.3        1.3     1.1     5.1
"Line.LN6199505-1"           1        0.0        0.0        0.0        0.0     0.0     0.0        0.0        0.0        0.0        0.0
"Line.LN6199505-1"           2        0.0        0.0        0.0        0.0     0.0     0.0
"Line.LN5682327-1"           1        0.0        0.0        0.0        0.0     0.0     0.0        0.0        0.0        0.0        0.0
"Line.LN5682327-1"           2        0.0        0.0        0.0        0.0     0.0     0.0
"Line.LN6290243-1"           1        0.0        0.0        0.0        0.0     0.0     0.0        0.0        0.0        0.0        0.0
"Line.LN6290243-1"           2        0.0        0.0        0.0        0.0     0.0     0.0
"Line.X8223_48332_SW"        1     1384.1     -560.7        1.4       -2.6    -1.2    -1.2        0.0        0.0        0.0        0.0
"Line.X8223_48332_SW"        2    -1384.1      560.7       -1.4        2.6     1.2     1.2
"Line.LN6413567-3"           1     1384.4     -560.6        1.4       -2.6    -1.2    -1.1        0.0        0.0        0.0        0.0
"Line.LN6413567-3"           2    -1384.1      560.7       -1.4        2.6     1.2     1.2
"Line.LN5591731-3"           1     6373.1      830.7       -6.6      -17.4   -14.2   -21.6        0.0        0.0        0.0        0.0
"Line.LN5591731-3"           2    -6373.0     -830.5        6.6       17.4    14.2    21.6
"Line.LN5653470-1"           1       29.2        7.7       -0.0        0.0     0.1     0.0        0.0        0.0        0.0        0.0
"Line.LN5653470-1"           2      -29.2       -7.8        0.0       -0.0    -0.1    -0.0
"Line.LN6017316-1"           1        0.0        0.0        0.0        0.0     0.0     0.0        0.0        0.0        0.0        0.0
"Line.LN6017316-1"           2        0.0        0.0        0.0        0.0     0.0     0.0
"Line.LN5926299-1"           1        0.0        0.0        0.0        0.0     0.0     0.0        0.0        0.0        0.0        0.0
"Line.LN5926299-1"           2        0.0        0.0        0.0        0.0     0.0     0.0
"Line.LN5683831-1"           1      862.8      232.7       -0.1       -1.8    -1.8    -1.1        0.0        0.0        0.0        0.0
"Line.LN5683831-1"           2     -862.4     -232.5        0.1        1.8     1.8     1.2
"Line.LN6352700-1"           1        0.0        0.0        0.0        0.0     0.0     0.0        0.0        0.0        0.0        0.0
"Line.LN6352700-1"           2        0.0        0.0        0.0        0.0     0.0     0.0
"Line.LN6047570-1"           1        0.0        0.0        0.0        0.0     0.0     0.0        0.0        0.0        0.0        0.0
"Line.LN6047570-1"           2        0.0        0.0        0.0        0.0     0.0     0.0
"Line.LN5624342-1"           1     6175.4      727.7       -8.9      -16.0    -9.7   -25.8        0.0        0.0        0.0        0.0
"Line.LN5624342-1"           2    -6173.3     -722.6        9.0       16.1     9.8    26.1
"Line.LN6259992-1"           1        0.0        0.0        0.0        0.0     0.0     0.0        0.0        0.0        0.0        0.0
"Line.LN6259992-1"           2        0.0        0.0        0.0        0.0     0.0     0.0
"Line.LN5841919-1"           1        0.0        0.0        0.0        0.0     0.0     0.0        0.0        0.0        0.0        0.0
"Line.LN5841919-1"           2        0.0        0.0        0.0        0.0     0.0     0.0
"Line.LN6380811-1"           1        0.0        0.0        0.0        0.0     0.0     0.0        0.0        0.0        0.0        0.0
"Line.LN6380811-1"           2        0.0        0.0        0.0        0.0     0.0     0.0
"Line.LN5683832-1"           1        0.0        0.0        0.0        0.0     0.0     0.0        0.0        0.0        0.0        0.0
"Line.LN5683832-1"           2        0.0        0.0        0.0        0.0     0.0     0.0
"Line.LN6077778-1"           1        0.0        0.0        0.0        0.0     0.0     0.0        0.0        0.0        0.0        0.0
"Line.LN6077778-1"           2        0.0        0.0        0.0        0.0     0.0     0.0
"Line.LN5561442-2"           1     7360.0     1226.4       -6.4      -14.4   -10.4   -17.6        0.0        0.0        0.0        0.0
"Line.LN5561442-2"           2    -7357.1    -1219.4        6.5       14.5    10.6    18.0
"Line.LN6259983-1"           1        0.0        0.0        0.0        0.0     0.0     0.0        0.0        0.0        0.0        0.0
"Line.LN6259983-1"           2        0.0        0.0        0.0        0.0     0.0     0.0
"Line.LN5865244-1"           1        0.0        0.0        0.0        0.0     0.0     0.0        0.0        0.0        0.0        0.0
"Line.LN5865244-1"           2        0.0        0.0        0.0        0.0     0.0     0.0
"Line.LN6350555-1"           1        0.0        0.0        0.0        0.0     0.0     0.0        0.0        0.0        0.0        0.0
"Line.LN6350555-1"           2        0.0        0.0        0.0        0.0     0.0     0.0
"Line.LN5714039-1"           1        0.0        0.0        0.0        0.0     0.0     0.0        0.0        0.0        0.0        0.0
"Line.LN5714039-1"           2        0.0        0.0        0.0        0.0     0.0     0.0
"Line.LN5889821-1"           1     6300.7      785.7       -7.6      -17.5   -13.4   -23.8        0.0        0.0        0.0        0.0
"Line.LN5889821-1"           2    -6297.3     -777.5        7.7       17.7    13.6    24.2
"Line.LN5804791-1"           1     1248.3     -596.9        0.2       -2.7    -0.8    -1.6        0.0        0.0        0.0        0.0
"Line.LN5804791-1"           2    -1246.9      597.3       -0.1        2.7     0.9     1.7
"Line.LN5653486-1"           1        0.0        0.0        0.0        0.0     0.0     0.0        0.0        0.0        0.0        0.0
"Line.LN5653486-1"           2        0.0        0.0        0.0        0.0     0.0     0.0
"Line.LN5926286-1"           1        0.0        0.0        0.0        0.0     0.0     0.0        0.0        0.0        0.0        0.0
"Line.LN5926286-1"           2        0.0        0.0        0.0        0.0     0.0     0.0
"Line.LN6318859-1"           1        0.0        0.0        0.0        0.0     0.0     0.0        0.0        0.0        0.0        0.0
"Line.LN6318859-1"           2        0.0        0.0        0.0        0.0     0.0     0.0
"Line.LN5926316-1"           1        0.0        0.0        0.0        0.0     0.0     0.0        0.0        0.0        0.0        0.0
"Line.LN5926316-1"           2        0.0        0.0        0.0        0.0     0.0     0.0
"Line.LN5591703-1"           1        0.0        0.0        0.0        0.0     0.0     0.0        0.0        0.0        0.0        0.0
"Line.LN5591703-1"           2        0.0        0.0        0.0        0.0     0.0     0.0
"Line.LN5531333-1"           1        0.0        0.0        0.0        0.0     0.0     0.0        0.0        0.0        0.0        0.0
"Line.LN5531333-1"           2        0.0        0.0        0.0        0.0     0.0     0.0
"Line.LN6047581-1"           1        0.0        0.0        0.0        0.0     0.0     0.0        0.0        0.0        0.0        0.0
"Line.LN6047581-1"           2        0.0        0.0        0.0        0.0     0.0     0.0
"Line.LN6349077-1"           1        0.0        0.0        0.0        0.0     0.0     0.0        0.0        0.0        0.0        0.0
"Line.LN6349077-1"           2        0.0        0.0        0.0        0.0     0.0     0.0
"Line.LN6350574-1"           1      190.9       50.6       -0.1       -0.1    -0.0    -0.2        0.0        0.0        0.0        0.0
"Line.LN6350574-1"           2     -190.9      -50.6        0.1        0.1     0.0     0.2
"Line.LN6320343-1"           1        0.0        0.0        0.0        0.0     0.0     0.0        0.0        0.0        0.0        0.0
"Line.LN6320343-1"           2        0.0        0.0        0.0        0.0     0.0     0.0
"Line.LN81048100-5"          1        0.0        0.0        0.0        0.0     0.0     0.0        0.0        0.0        0.0        0.0
"Line.LN81048100-5"          2        0.0        0.0        0.0        0.0     0.0     0.0
"Line.LN6348946-1"           1        0.0        0.0        0.0        0.0     0.0     0.0        0.0        0.0        0.0        0.0
"Line.LN6348946-1"           2        0.0        0.0        0.0        0.0     0.0     0.0
"Line.LN5744351-1"           1        0.0        0.0        0.0        0.0     0.0     0.0        0.0        0.0        0.0        0.0
"Line.LN5744351-1"           2        0.0        0.0        0.0        0.0     0.0     0.0
"Line.LN5472342-1"           1        0.0        0.0        0.0        0.0     0.0     0.0        0.0        0.0        0.0        0.0
"Line.LN5472342-1"           2        0.0        0.0        0.0        0.0     0.0     0.0
"Line.LN5621849-1"           1        0.0        0.0        0.0        0.0     0.0     0.0        0.0        0.0        0.0        0.0
"Line.LN5621849-1"           2        0.0        0.0        0.0        0.0     0.0     0.0
"Line.LN6379375-1"           1        0.0        0.0        0.0        0.0     0.0     0.0        0.0        0.0        0.0        0.0
"Line.LN6379375-1"           2        0.0        0.0        0.0        0.0     0.0     0.0
"Line.LN6028890-1"           1       49.0       13.1       -0.1        0.0     0.0    -0.1        0.0        0.0        0.0        0.0
"Line.LN6028890-1"           2      -49.0      -13.1        0.1       -0.0    -0.0     0.1
"Line.LN6380822-1"           1     1370.6      380.9        5.1       -4.9    -1.0    -7.3        0.0        0.0        0.0        0.0
"Line.LN6380822-1"           2    -1369.7     -380.2       -5.1        4.9     1.0     7.3
"Line.LN5835131-1"           1      799.8      218.6       -4.0       -3.1     5.9    -1.3        0.0        0.0        0.0        0.0
"Line.LN5835131-1"           2     -799.6     -218.5        4.0        3.1    -5.9     1.3
"Line.LN5803262-7"           1        0.0        0.0        0.0        0.0     0.0     0.0        0.0        0.0        0.0        0.0
"Line.LN5803262-7"           2        0.0        0.0        0.0        0.0     0.0     0.0
"Line.LN81048089-1"          1        0.0        0.0        0.0        0.0     0.0     0.0        0.0        0.0        0.0        0.0
"Line.LN81048089-1"          2        0.0        0.0        0.0        0.0     0.0     0.0
"Line.LN6201699-1"           1        0.0        0.0        0.0        0.0     0.0     0.0        0.0        0.0        0.0        0.0
"Line.LN6201699-1"           2        0.0        0.0        0.0        0.0     0.0     0.0
"Line.LN5746548-1"           1      682.8      178.6        6.1        3.0    -8.1    -1.2        0.0        0.0        0.0        0.0
"Line.LN5746548-1"           2     -682.7     -178.5       -6.0       -3.0     8.1     1.2
"Line.LN5835174-1"           1        0.0        0.0        0.0        0.0     0.0     0.0        0.0        0.0        0.0        0.0
"Line.LN5835174-1"           2        0.0        0.0        0.0        0.0     0.0     0.0
"Line.LN6505947-4"           1        0.0        0.0        0.0        0.0     0.0     0.0        0.0        0.0        0.0        0.0
"Line.LN6505947-4"           2        0.0        0.0        0.0        0.0     0.0     0.0
"Line.LN5683833-1"           1        0.0        0.0        0.0        0.0     0.0     0.0        0.0        0.0        0.0        0.0
"Line.LN5683833-1"           2        0.0        0.0        0.0        0.0     0.0     0.0
"Line.LN5561439-3"           1      491.7      149.4       -5.3       -8.0     6.7    -9.5        0.0        0.0        0.0        0.0
"Line.LN5561439-3"           2     -491.6     -149.4        5.3        8.1    -6.7     9.7
"Line.LN6109190-1"           1        0.0        0.0        0.0        0.0     0.0     0.0        0.0        0.0        0.0        0.0
"Line.LN6109190-1"           2        0.0        0.0        0.0        0.0     0.0     0.0
"Line.LN6258435-2"           1        0.0        0.0        0.0        0.0     0.0     0.0        0.0        0.0        0.0        0.0
"Line.LN6258435-2"           2        0.0        0.0        0.0        0.0     0.0     0.0
"Line.LN5804819-1"           1        0.0        0.0        0.0        0.0     0.0     0.0        0.0        0.0        0.0        0.0
"Line.LN5804819-1"           2        0.0        0.0        0.0        0.0     0.0     0.0
"Line.LN5593215-1"           1        0.0        0.0        0.0        0.0     0.0     0.0        0.0        0.0        0.0        0.0
"Line.LN5593215-1"           2        0.0        0.0        0.0        0.0     0.0     0.0
"Line.LN5833717-1"           1     1021.7      281.8       -4.7       -4.4     7.9    -1.4        0.0        0.0        0.0        0.0
"Line.LN5833717-1"           2    -1021.5     -281.6        4.7        4.5    -7.9     1.5
"Line.LN6199557-1"           1     1006.8      276.9       -4.5       -4.0     7.6    -1.2        0.0        0.0        0.0        0.0
"Line.LN6199557-1"           2    -1006.4     -276.6        4.6        4.0    -7.5     1.3
"Line.LN5744332-1"           1        0.0        0.0        0.0        0.0     0.0     0.0        0.0        0.0        0.0        0.0
"Line.LN5744332-1"           2        0.0        0.0        0.0        0.0     0.0     0.0
"Line.LN5558790-1"           1     7529.4     1390.0       -3.6      -11.2    -7.5    -9.8        0.0        0.0        0.0        0.0
"Line.LN5558790-1"           2    -7528.7    -1388.1        3.6       11.2     7.5     9.9
"Line.LN6078692-1"           1        0.0        0.0        0.0        0.0     0.0     0.0        0.0        0.0        0.0        0.0
"Line.LN6078692-1"           2        0.0        0.0        0.0        0.0     0.0     0.0
"Line.LN5956482-1"           1        0.0        0.0        0.0        0.0     0.0     0.0        0.0        0.0        0.0        0.0
"Line.LN5956482-1"           2        0.0        0.0        0.0        0.0     0.0     0.0
"Line.LN5593225-1"           1        0.0        0.0        0.0        0.0     0.0     0.0        0.0        0.0        0.0        0.0
"Line.LN5593225-1"           2        0.0        0.0        0.0        0.0     0.0     0.0
"Line.LN6900591-26"          1        0.0        0.0        0.0        0.0     0.0     0.0        0.0        0.0        0.0        0.0
"Line.LN6900591-26"          2        0.0        0.0        0.0        0.0     0.0     0.0
"Line.LN5952393-1"           1        0.0        0.0        0.0        0.0     0.0     0.0        0.0        0.0        0.0        0.0
"Line.LN5952393-1"           2        0.0        0.0        0.0        0.0     0.0     0.0
"Line.LN6350531-1"           1        0.0        0.0        0.0        0.0     0.0     0.0        0.0        0.0        0.0        0.0
"Line.LN6350531-1"           2        0.0        0.0        0.0        0.0     0.0     0.0
"Line.LN5965099-10"          1      298.4       64.9       -3.5        6.9     2.2     6.1        0.0        0.0        0.0        0.0
"Line.LN5965099-10"          2     -298.4      -64.9        3.5       -6.9    -2.2    -6.1
"Line.LN6047568-1"           1        0.0        0.0        0.0        0.0     0.0     0.0        0.0        0.0        0.0        0.0
"Line.LN6047568-1"           2        0.0        0.0        0.0        0.0     0.0     0.0
"Line.LN5926292-1"           1        0.0        0.0        0.0        0.0     0.0     0.0        0.0        0.0        0.0        0.0
"Line.LN5926292-1"           2        0.0        0.0        0.0        0.0     0.0     0.0
"Line.LN6380806-1"           1        0.0        0.0        0.0        0.0     0.0     0.0        0.0        0.0        0.0        0.0
"Line.LN6380806-1"           2        0.0        0.0        0.0        0.0     0.0     0.0
"Line.LN6341781-3"           1        0.0        0.0        0.0        0.0     0.0     0.0        0.0        0.0        0.0        0.0
"Line.LN6341781-3"           2        0.0        0.0        0.0        0.0     0.0     0.0
"Line.LN8979367-1"           1        0.0        0.0        0.0        0.0     0.0     0.0        0.0        0.0        0.0        0.0
"Line.LN8979367-1"           2        0.0        0.0        0.0        0.0     0.0     0.0
"Line.LN6018340-1"           1        0.0        0.0        0.0        0.0     0.0     0.0        0.0        0.0        0.0        0.0
"Line.LN6018340-1"           2        0.0        0.0        0.0        0.0     0.0     0.0
"Line.LN6380847-1"           1      622.5      169.3       -1.4       -1.4    -1.1    -2.4        0.0        0.0        0.0        0.0
"Line.LN6380847-1"           2     -622.1     -169.2        1.4        1.4     1.1     2.5
"Line.LN8961797-1"           1        0.0        0.0        0.0        0.0     0.0     0.0        0.0        0.0        0.0        0.0
"Line.LN8961797-1"           2        0.0        0.0        0.0        0.0     0.0     0.0
"Line.LN6077797-1"           1        0.0        0.0        0.0        0.0     0.0     0.0        0.0        0.0        0.0        0.0
"Line.LN6077797-1"           2        0.0        0.0        0.0        0.0     0.0     0.0
"Line.LN6077773-1"           1        0.0        0.0        0.0        0.0     0.0     0.0        0.0        0.0        0.0        0.0
"Line.LN6077773-1"           2        0.0        0.0        0.0        0.0     0.0     0.0
"Line.LN5837496-4"           1        0.0        0.0        0.0        0.0     0.0     0.0        0.0        0.0        0.0        0.0
"Line.LN5837496-4"           2        0.0        0.0        0.0        0.0     0.0     0.0
"Line.LN5623392-1"           1        0.0        0.0        0.0        0.0     0.0     0.0        0.0        0.0        0.0        0.0
"Line.LN5623392-1"           2        0.0        0.0        0.0        0.0     0.0     0.0
"Line.LN5624380-1"           1        0.0        0.0        0.0        0.0     0.0     0.0        0.0        0.0        0.0        0.0
"Line.LN5624380-1"           2        0.0        0.0        0.0        0.0     0.0     0.0
"Line.LN6422809-2"           1     2687.7      754.3        7.5      -10.0     2.4   -11.4        0.0        0.0        0.0        0.0
"Line.LN6422809-2"           2    -2687.6     -754.2       -7.5       10.0    -2.4    11.4
"Line.LN5799561-1"           1     3059.2      -82.6        0.6        3.2     4.7     1.4        0.0        0.0        0.0        0.0
"Line.LN5799561-1"           2    -3058.2       84.9       -0.6       -3.2    -4.6    -1.3
"Line.LN6229818-1"           1        0.0        0.0        0.0        0.0     0.0     0.0        0.0        0.0        0.0        0.0
"Line.LN6229818-1"           2        0.0        0.0        0.0        0.0     0.0     0.0
"Line.LN5593230-1"           1        0.0        0.0        0.0        0.0     0.0     0.0        0.0        0.0        0.0        0.0
"Line.LN5593230-1"           2        0.0        0.0        0.0        0.0     0.0     0.0
"Line.LN5563901-3"           1     6288.3      764.7       -8.0      -18.1   -14.0   -25.0        0.0        0.0        0.0        0.0
"Line.LN5563901-3"           2    -6286.5     -760.2        8.1       18.2    14.1    25.2
"Line.LN6320339-1"           1        0.0        0.0        0.0        0.0     0.0     0.0        0.0        0.0        0.0        0.0
"Line.LN6320339-1"           2        0.0        0.0        0.0        0.0     0.0     0.0
"Line.LN5986927-1"           1        0.0        0.0        0.0        0.0     0.0     0.0        0.0        0.0        0.0        0.0
"Line.LN5986927-1"           2        0.0        0.0        0.0        0.0     0.0     0.0
"Line.LN6047567-1"           1        0.0        0.0        0.0        0.0     0.0     0.0        0.0        0.0        0.0        0.0
"Line.LN6047567-1"           2        0.0        0.0        0.0        0.0     0.0     0.0
"Line.LN5714047-1"           1        0.0        0.0        0.0        0.0     0.0     0.0        0.0        0.0        0.0        0.0
"Line.LN5714047-1"           2        0.0        0.0        0.0        0.0     0.0     0.0
"Line.LN5563934-1"           1        0.0        0.0        0.0        0.0     0.0     0.0        0.0        0.0        0.0        0.0
"Line.LN5563934-1"           2        0.0        0.0        0.0        0.0     0.0     0.0
"Line.LN6169249-3"           1        0.0        0.0        0.0        0.0     0.0     0.0        0.0        0.0        0.0        0.0
"Line.LN6169249-3"           2        0.0        0.0        0.0        0.0     0.0     0.0
"Line.LN6230800-1"           1        0.0        0.0        0.0        0.0     0.0     0.0        0.0        0.0        0.0        0.0
"Line.LN6230800-1"           2        0.0        0.0        0.0        0.0     0.0     0.0
"Line.LN5985339-2"           1        0.0        0.0        0.0        0.0     0.0     0.0        0.0        0.0        0.0        0.0
"Line.LN5985339-2"           2        0.0        0.0        0.0        0.0     0.0     0.0
"Line.LN5898059-3"           1        0.0        0.0        0.0        0.0     0.0     0.0        0.0        0.0        0.0        0.0
"Line.LN5898059-3"           2        0.0        0.0        0.0        0.0     0.0     0.0
"Line.LN5956457-2"           1      775.0      210.8       -4.2       -2.7     5.8    -1.1        0.0        0.0        0.0        0.0
"Line.LN5956457-2"           2     -775.0     -210.8        4.2        2.7    -5.8     1.2
"Line.LN5865229-1"           1        0.0        0.0        0.0        0.0     0.0     0.0        0.0        0.0        0.0        0.0
"Line.LN5865229-1"           2        0.0        0.0        0.0        0.0     0.0     0.0
"Line.LN6018331-1"           1     2998.8     -104.3        0.3        2.8     4.1     0.6        0.0        0.0        0.0        0.0
"Line.LN6018331-1"           2    -2998.2      105.6       -0.3       -2.8    -4.1    -0.5
"Line.LN6199535-1"           1        0.0        0.0        0.0        0.0     0.0     0.0        0.0        0.0        0.0        0.0
"Line.LN6199535-1"           2        0.0        0.0        0.0        0.0     0.0     0.0
"Line.LN5502538-1"           1      767.0      199.0        7.2        4.2    -8.5     0.1        0.0        0.0        0.0        0.0
"Line.LN5502538-1"           2     -766.4     -198.9       -7.1       -4.2     8.6     0.0
"Line.LN5742816-2"           1        0.0        0.0        0.0        0.0     0.0     0.0        0.0        0.0        0.0        0.0
"Line.LN5742816-2"           2        0.0        0.0        0.0        0.0     0.0     0.0
"Line.LN6229803-3"           1        0.0        0.0        0.0        0.0     0.0     0.0        0.0        0.0        0.0        0.0
"Line.LN6229803-3"           2        0.0        0.0        0.0        0.0     0.0     0.0
"Line.LN5986930-1"           1        0.0        0.0        0.0        0.0     0.0     0.0        0.0        0.0        0.0        0.0
"Line.LN5986930-1"           2        0.0        0.0        0.0        0.0     0.0     0.0
"Line.LN6350532-1"           1        0.0        0.0        0.0        0.0     0.0     0.0        0.0        0.0        0.0        0.0
"Line.LN6350532-1"           2        0.0        0.0        0.0        0.0     0.0     0.0
"Line.LN5588016-3"           1        0.0        0.0        0.0        0.0     0.0     0.0        0.0        0.0        0.0        0.0
"Line.LN5588016-3"           2        0.0        0.0        0.0        0.0     0.0     0.0
...
"Line.V7173_48332_SW"        1     5798.2      453.9        9.3      -18.3    -1.1   -21.1        0.0        0.0        0.0        0.0
"Line.V7173_48332_SW"        2    -5798.0     -453.7       -9.3       18.3     1.1    21.2
"Line.LN5534969-2"           1     5798.9      455.7        9.4      -18.3    -1.0   -21.0        0.0        0.0        0.0        0.0
"Line.LN5534969-2"           2    -5798.2     -453.9       -9.3       18.3     1.1    21.1
"Line.LN6015891-1"           1        0.0        0.0        0.0        0.0     0.0     0.0        0.0        0.0        0.0        0.0
"Line.LN6015891-1"           2        0.0        0.0        0.0        0.0     0.0     0.0
"Line.LN5683816-1"           1      651.6      200.5       -3.7      -12.9     8.0   -11.4        0.0        0.0        0.0        0.0
"Line.LN5683816-1"           2     -651.3     -200.4        3.9       13.0    -7.8    11.6
"Line.LN6199561-1"           1        0.0        0.0        0.0        0.0     0.0     0.0        0.0        0.0        0.0        0.0
"Line.LN6199561-1"           2        0.0        0.0        0.0        0.0     0.0     0.0
"Line.LN6900591-12"          1        0.0        0.0        0.0        0.0     0.0     0.0        0.0        0.0        0.0        0.0
"Line.LN6900591-12"          2        0.0        0.0        0.0        0.0     0.0     0.0
"Line.LN6411363-1"           1        0.0        0.0        0.0        0.0     0.0     0.0        0.0        0.0        0.0        0.0
"Line.LN6411363-1"           2        0.0        0.0        0.0        0.0     0.0     0.0
"Line.LN6108130-6"           1        0.0        0.0        0.0        0.0     0.0     0.0        0.0        0.0        0.0        0.0
"Line.LN6108130-6"           2        0.0        0.0        0.0        0.0     0.0     0.0
"Line.LN5837516-1"           1        0.0        0.0        0.0        0.0     0.0     0.0        0.0        0.0        0.0        0.0
"Line.LN5837516-1"           2        0.0        0.0        0.0        0.0     0.0     0.0
"Line.LN6017301-4"           1        0.0        0.0        0.0        0.0     0.0     0.0        0.0        0.0        0.0        0.0
"Line.LN6017301-4"           2        0.0        0.0        0.0        0.0     0.0     0.0
"Line.LN5981121-1"           1        0.0        0.0        0.0        0.0     0.0     0.0        0.0        0.0        0.0        0.0
"Line.LN5981121-1"           2        0.0        0.0        0.0        0.0     0.0     0.0
"Line.LN81048107-4"          1        0.0        0.0        0.0        0.0     0.0     0.0        0.0        0.0        0.0        0.0
"Line.LN81048107-4"          2        0.0        0.0        0.0        0.0     0.0     0.0
"Line.LN5472374-1"           1        0.0        0.0        0.0        0.0     0.0     0.0        0.0        0.0        0.0        0.0
"Line.LN5472374-1"           2        0.0        0.0        0.0        0.0     0.0     0.0
"Line.LN5746550-2"           1        0.0        0.0        0.0        0.0     0.0     0.0        0.0        0.0        0.0        0.0
"Line.LN5746550-2"           2        0.0        0.0        0.0        0.0     0.0     0.0
"Line.LN5561437-1"           1      249.7       66.1       -0.1       -0.1     0.1    -0.2        0.0        0.0        0.0        0.0
"Line.LN5561437-1"           2     -249.6      -66.1        0.1        0.1    -0.1     0.2
"Line.LN6439986-3"           1        0.0        0.0        0.0        0.0     0.0     0.0        0.0        0.0        0.0        0.0
"Line.LN6439986-3"           2        0.0        0.0        0.0        0.0     0.0     0.0
"Line.LN5744324-1"           1        0.0        0.0        0.0        0.0     0.0     0.0        0.0        0.0        0.0        0.0
"Line.LN5744324-1"           2        0.0        0.0        0.0        0.0     0.0     0.0
"Line.LN6376708-1"           1        0.0        0.0        0.0        0.0     0.0     0.0        0.0        0.0        0.0        0.0
"Line.LN6376708-1"           2        0.0        0.0        0.0        0.0     0.0     0.0
"Line.LN5895816-2"           1       74.5       19.8       -0.2       -0.1     0.5     0.1        0.0        0.0        0.0        0.0
"Line.LN5895816-2"           2      -74.5      -19.8        0.2        0.1    -0.5    -0.1
"Line.LN5593235-1"           1        0.0        0.0        0.0        0.0     0.0     0.0        0.0        0.0        0.0        0.0
"Line.LN5593235-1"           2        0.0        0.0        0.0        0.0     0.0     0.0
"Line.LN81354563-2"          1        0.0        0.0        0.0        0.0     0.0     0.0        0.0        0.0        0.0        0.0
"Line.LN81354563-2"          2        0.0        0.0        0.0        0.0     0.0     0.0
"Line.LN5866260-1"           1        0.0        0.0        0.0        0.0     0.0     0.0        0.0        0.0        0.0        0.0
"Line.LN5866260-1"           2        0.0        0.0        0.0        0.0     0.0     0.0
"Line.LN6018243-1"           1        0.0        0.0        0.0        0.0     0.0     0.0        0.0        0.0        0.0        0.0
"Line.LN6018243-1"           2        0.0        0.0        0.0        0.0     0.0     0.0
"Line.LN5928743-3"           1        0.0        0.0        0.0        0.0     0.0     0.0        0.0        0.0        0.0        0.0
"Line.LN5928743-3"           2        0.0        0.0        0.0        0.0     0.0     0.0
"Line.LN5957501-1"           1        0.0        0.0        0.0        0.0     0.0     0.0        0.0        0.0        0.0        0.0
"Line.LN5957501-1"           2        0.0        0.0        0.0        0.0     0.0     0.0
"Line.LN6379357-1"           1        0.0        0.0        0.0        0.0     0.0     0.0        0.0        0.0        0.0        0.0
"Line.LN6379357-1"           2        0.0        0.0        0.0        0.0     0.0     0.0
"Line.LN6291252-2"           1     2654.3     -218.9        1.0        3.1     4.3     0.1        0.0        0.0        0.0        0.0
"Line.LN6291252-2"           2    -2654.0      219.5       -1.0       -3.1    -4.3    -0.0
"Line.LN6440002-3"           1        0.0        0.0        0.0        0.0     0.0     0.0        0.0        0.0        0.0        0.0
"Line.LN6440002-3"           2        0.0        0.0        0.0        0.0     0.0     0.0
"Line.LN6076346-1"           1      555.0      176.4       -6.2      -14.2     6.7   -13.9        0.0        0.0        0.0        0.0
"Line.LN6076346-1"           2     -554.6     -176.4        6.5       14.3    -6.4    14.2
"Line.LN8978752-1"           1      291.9       78.8       -0.0        0.1     0.1    -0.0        0.0        0.0        0.0        0.0
"Line.LN8978752-1"           2     -291.9      -78.8        0.0       -0.1    -0.1     0.0
"Line.LN5621834-1"           1        0.0        0.0        0.0        0.0     0.0     0.0        0.0        0.0        0.0        0.0
"Line.LN5621834-1"           2        0.0        0.0        0.0        0.0     0.0     0.0
"Line.LN6108123-1"           1        0.0        0.0        0.0        0.0     0.0     0.0        0.0        0.0        0.0        0.0
"Line.LN6108123-1"           2        0.0        0.0        0.0        0.0     0.0     0.0
"Line.LN6505952-4"           1        0.0        0.0        0.0        0.0     0.0     0.0        0.0        0.0        0.0        0.0
"Line.LN6505952-4"           2        0.0        0.0        0.0        0.0     0.0     0.0
"Line.LN5835159-1"           1        0.0        0.0        0.0        0.0     0.0     0.0        0.0        0.0        0.0        0.0
"Line.LN5835159-1"           2        0.0        0.0        0.0        0.0     0.0     0.0
"Line.LN5698090-2"           1        0.0        0.0        0.0        0.0     0.0     0.0        0.0        0.0        0.0        0.0
"Line.LN5698090-2"           2        0.0        0.0        0.0        0.0     0.0     0.0
"Line.LN5714050-1"           1        0.0        0.0        0.0        0.0     0.0     0.0        0.0        0.0        0.0        0.0
"Line.LN5714050-1"           2        0.0        0.0        0.0        0.0     0.0     0.0
"Line.LN5502529-1"           1        0.0        0.0        0.0        0.0     0.0     0.0        0.0        0.0        0.0        0.0
"Line.LN5502529-1"           2        0.0        0.0        0.0        0.0     0.0     0.0
"Line.LN5594236-1"           1     3051.8      -88.3        0.6        3.2     4.7     1.1        0.0        0.0        0.0        0.0
"Line.LN5594236-1"           2    -3051.3       89.6       -0.6       -3.2    -4.7    -1.1
"Line.LN5593248-1"           1        0.0        0.0        0.0        0.0     0.0     0.0        0.0        0.0        0.0        0.0
"Line.LN5593248-1"           2        0.0        0.0        0.0        0.0     0.0     0.0
"Line.LN5865272-1"           1      542.1      148.5       -1.5       -2.0    -1.9    -2.7        0.0        0.0        0.0        0.0
"Line.LN5865272-1"           2     -541.8     -148.5        1.5        2.0     1.9     2.8
"Line.LN5924696-3"           1        0.0        0.0        0.0        0.0     0.0     0.0        0.0        0.0        0.0        0.0
"Line.LN5924696-3"           2        0.0        0.0        0.0        0.0     0.0     0.0
"Line.LN5589096-1"           1        0.0        0.0        0.0        0.0     0.0     0.0        0.0        0.0        0.0        0.0
"Line.LN5589096-1"           2        0.0        0.0        0.0        0.0     0.0     0.0
"Line.LN6017295-1"           1        0.0        0.0        0.0        0.0     0.0     0.0        0.0        0.0        0.0        0.0
"Line.LN6017295-1"           2        0.0        0.0        0.0        0.0     0.0     0.0
"Line.LN5970852-1"           1        0.0        0.0        0.0        0.0     0.0     0.0        0.0        0.0        0.0        0.0
"Line.LN5970852-1"           2        0.0        0.0        0.0        0.0     0.0     0.0
"Line.LN5683820-1"           1        0.0        0.0        0.0        0.0     0.0     0.0        0.0        0.0        0.0        0.0
"Line.LN5683820-1"           2        0.0        0.0        0.0        0.0     0.0     0.0
"Line.LN6286966-3"           1        0.0        0.0        0.0        0.0     0.0     0.0        0.0        0.0        0.0        0.0
"Line.LN6286966-3"           2        0.0        0.0        0.0        0.0     0.0     0.0
"Line.LN6167715-1"           1        0.0        0.0        0.0        0.0     0.0     0.0        0.0        0.0        0.0        0.0
"Line.LN6167715-1"           2        0.0        0.0        0.0        0.0     0.0     0.0
"Line.LN6108140-2"           1        0.0        0.0        0.0        0.0     0.0     0.0        0.0        0.0        0.0        0.0
"Line.LN6108140-2"           2        0.0        0.0        0.0        0.0     0.0     0.0
"Line.LN6228279-1"           1        0.0        0.0        0.0        0.0     0.0     0.0        0.0        0.0        0.0        0.0
"Line.LN6228279-1"           2        0.0        0.0        0.0        0.0     0.0     0.0
"Line.LN5803264-2"           1        0.0        0.0        0.0        0.0     0.0     0.0        0.0        0.0        0.0        0.0
"Line.LN5803264-2"           2        0.0        0.0        0.0        0.0     0.0     0.0
"Line.LN6132680-1"           1      627.7      194.0       -4.7      -13.0     8.4   -11.5        0.0        0.0        0.0        0.0
"Line.LN6132680-1"           2     -627.3     -193.9        4.9       13.1    -8.2    11.8
...